goiania_leste_dss/TR4/CTMT_5007259.dss
! ==============================================================================
! ALIMENTADOR CTMT_5007259 - GOIANIA LESTE-23
! Subestacao: Trafo TR4 (GOL-S-TRF-TR4) | Barra MT: 6440 -> PAC_INI: 93360685007259
! ==============================================================================

! 1. Disjuntor de Saida MT do Alimentador
new line.DJ_5007259 phases=3 bus1=6440 bus2=93360685007259 switch=y r1=1e-4 x1=1e-4 length=0.001 units=km

! 2. Linhas de Media Tensao (MT)
new line.52883098 phases=3 bus1=80501635007259.1.2.3 bus2=80501645007259.1.2.3 r1=1.551 x1=0.47 length=0.037165 units=km normamps=125.0
new line.52883099 phases=3 bus1=80501635007259.1.2.3 bus2=80501655007259.1.2.3 r1=0.975 x1=0.46 length=0.038056 units=km normamps=160.0
new line.52883100 phases=3 bus1=80501665007259.1.2.3 bus2=80501645007259.1.2.3 r1=1.551 x1=0.47 length=0.043373 units=km normamps=125.0
new line.52883101 phases=3 bus1=80501675007259.1.2.3 bus2=80501665007259.1.2.3 r1=1.551 x1=0.47 length=0.023718 units=km normamps=125.0
new line.52883102 phases=3 bus1=80501685007259.1.2.3 bus2=80501675007259.1.2.3 r1=1.551 x1=0.47 length=0.038292 units=km normamps=125.0
new line.52883103 phases=3 bus1=80501735007259.1.2.3 bus2=80501675007259.1.2.3 r1=0.975 x1=0.46 length=0.031909 units=km normamps=160.0
new line.52883104 phases=3 bus1=80503655007259.1.2.3 bus2=80503645007259.1.2.3 r1=0.975 x1=0.46 length=0.014791 units=km normamps=160.0
new line.52883105 phases=3 bus1=80503665007259.1.2.3 bus2=80503655007259.1.2.3 r1=0.975 x1=0.46 length=0.036498 units=km normamps=160.0
new line.52883106 phases=3 bus1=80503675007259.1.2.3 bus2=80503665007259.1.2.3 r1=0.975 x1=0.46 length=0.04135 units=km normamps=160.0
new line.52883107 phases=3 bus1=80503685007259.1.2.3 bus2=80503675007259.1.2.3 r1=0.975 x1=0.46 length=0.040349 units=km normamps=160.0
new line.52883108 phases=3 bus1=80503685007259.1.2.3 bus2=80503695007259.1.2.3 r1=0.975 x1=0.46 length=0.02791 units=km normamps=160.0
new line.52883109 phases=3 bus1=80502275007259.1.2.3 bus2=80503695007259.1.2.3 r1=0.975 x1=0.46 length=0.041915 units=km normamps=160.0
new line.52883111 phases=3 bus1=80505765007259.1.2.3 bus2=80505775007259.1.2.3 r1=0.975 x1=0.47 length=0.039338 units=km normamps=152.0
new line.52883112 phases=3 bus1=80505775007259.1.2.3 bus2=80505785007259.1.2.3 r1=0.975 x1=0.47 length=0.039192 units=km normamps=152.0
new line.52883113 phases=3 bus1=80505785007259.1.2.3 bus2=80505795007259.1.2.3 r1=0.975 x1=0.47 length=0.020705 units=km normamps=152.0
new line.52883129 phases=3 bus1=80504065007259.1.2.3 bus2=80503925007259.1.2.3 r1=0.732 x1=0.31 length=0.03343 units=km normamps=225.0
new line.52883130 phases=3 bus1=80504445007259.1.2.3 bus2=80504435007259.1.2.3 r1=0.975 x1=0.47 length=0.047783 units=km normamps=152.0
new line.52883131 phases=3 bus1=80504455007259.1.2.3 bus2=80504445007259.1.2.3 r1=0.975 x1=0.47 length=0.035141 units=km normamps=152.0
new line.52883132 phases=3 bus1=80504465007259.1.2.3 bus2=80504455007259.1.2.3 r1=0.975 x1=0.47 length=0.034998 units=km normamps=152.0
new line.52883133 phases=3 bus1=80504475007259.1.2.3 bus2=80504465007259.1.2.3 r1=0.975 x1=0.47 length=0.027685 units=km normamps=152.0
new line.52883134 phases=3 bus1=80504485007259.1.2.3 bus2=80504475007259.1.2.3 r1=0.975 x1=0.47 length=0.033883 units=km normamps=152.0
new line.52883135 phases=3 bus1=80504495007259.1.2.3 bus2=80504485007259.1.2.3 r1=0.975 x1=0.47 length=0.023862 units=km normamps=152.0
new line.52883136 phases=3 bus1=80504505007259B.1.2.3 bus2=80504495007259.1.2.3 r1=0.975 x1=0.47 length=0.02068 units=km normamps=152.0
new line.52883137 phases=3 bus1=80504515007259.1.2.3 bus2=80504505007259.1.2.3 r1=0.236 x1=0.27 length=0.014206 units=km normamps=456.0
new line.52883138 phases=3 bus1=80504585007259.1.2.3 bus2=80502395007259.1.2.3 r1=1.551 x1=0.47 length=0.042715 units=km normamps=125.0
new line.52883139 phases=3 bus1=80504595007259.1.2.3 bus2=80504585007259.1.2.3 r1=1.551 x1=0.47 length=0.048007 units=km normamps=125.0
new line.52883140 phases=3 bus1=80504605007259.1.2.3 bus2=80504595007259.1.2.3 r1=1.551 x1=0.47 length=0.025889 units=km normamps=125.0
new line.52883141 phases=3 bus1=80504615007259.1.2.3 bus2=80504605007259.1.2.3 r1=1.551 x1=0.47 length=0.014461 units=km normamps=125.0
new line.52883142 phases=3 bus1=80504625007259.1.2.3 bus2=80504615007259.1.2.3 r1=0.975 x1=0.47 length=0.010575 units=km normamps=152.0
new line.52883143 phases=3 bus1=80506595007259.1.2.3 bus2=80507285007259.1.2.3 r1=0.613 x1=0.44 length=0.039059 units=km normamps=220.0
new line.52883144 phases=3 bus1=80507285007259.1.2.3 bus2=80507345007259.1.2.3 r1=0.613 x1=0.44 length=0.042608 units=km normamps=220.0
new line.52883145 phases=3 bus1=80507345007259.1.2.3 bus2=80507355007259.1.2.3 r1=0.613 x1=0.44 length=0.04325 units=km normamps=220.0
new line.52883146 phases=3 bus1=80507355007259.1.2.3 bus2=80507365007259.1.2.3 r1=0.613 x1=0.44 length=0.046911 units=km normamps=220.0
new line.52883147 phases=3 bus1=80504755007259.1.2.3 bus2=80504745007259.1.2.3 r1=0.236 x1=0.27 length=0.033991 units=km normamps=456.0
new line.52883148 phases=3 bus1=80504765007259.1.2.3 bus2=80504755007259.1.2.3 r1=0.236 x1=0.27 length=0.039511 units=km normamps=456.0
new line.52883149 phases=3 bus1=80504765007259B.1.2.3 bus2=80503925007259.1.2.3 r1=0.732 x1=0.31 length=0.016864 units=km normamps=225.0
new line.52883150 phases=3 bus1=80504775007259.1.2.3 bus2=80504765007259.1.2.3 r1=0.236 x1=0.27 length=0.034289 units=km normamps=456.0
new line.52883151 phases=3 bus1=80504785007259.1.2.3 bus2=80504775007259.1.2.3 r1=0.236 x1=0.27 length=0.019455 units=km normamps=456.0
new line.52883152 phases=3 bus1=80503785007259.1.2.3 bus2=80504785007259.1.2.3 r1=0.236 x1=0.27 length=0.022865 units=km normamps=456.0
new line.52883153 phases=3 bus1=80504745007259.1.2.3 bus2=80504725007259.1.2.3 r1=0.236 x1=0.27 length=0.044256 units=km normamps=456.0
new line.52883154 phases=3 bus1=80504515007259.1.2.3 bus2=80504725007259.1.2.3 r1=0.236 x1=0.27 length=0.034297 units=km normamps=456.0
new line.52883155 phases=3 bus1=80502255007259.1.2.3 bus2=80504525007259.1.2.3 r1=0.236 x1=0.27 length=0.044007 units=km normamps=456.0
new line.52883156 phases=3 bus1=80504525007259.1.2.3 bus2=80504515007259.1.2.3 r1=0.236 x1=0.27 length=0.018855 units=km normamps=456.0
new line.52883157 phases=3 bus1=80505125007259.1.2.3 bus2=80504615007259.1.2.3 r1=1.551 x1=0.47 length=0.022074 units=km normamps=125.0
new line.52883158 phases=3 bus1=80507365007259.1.2.3 bus2=80507375007259.1.2.3 r1=0.613 x1=0.44 length=0.041491 units=km normamps=220.0
new line.52883159 phases=3 bus1=80507375007259.1.2.3 bus2=80507385007259.1.2.3 r1=0.613 x1=0.44 length=0.034805 units=km normamps=220.0
new line.52883160 phases=3 bus1=80507385007259.1.2.3 bus2=80507395007259.1.2.3 r1=0.613 x1=0.44 length=0.031533 units=km normamps=220.0
new line.52883163 phases=3 bus1=80507415007259.1.2.3 bus2=80507425007259.1.2.3 r1=0.236 x1=0.27 length=0.023819 units=km normamps=456.0
new line.52883164 phases=3 bus1=80507435007259.1.2.3 bus2=80507425007259.1.2.3 r1=0.236 x1=0.27 length=0.011696 units=km normamps=456.0
new line.52883165 phases=3 bus1=80507425007259.1.2.3 bus2=80507445007259.1.2.3 r1=0.236 x1=0.27 length=0.027202 units=km normamps=456.0
new line.52883166 phases=3 bus1=80507445007259.1.2.3 bus2=80507455007259.1.2.3 r1=0.236 x1=0.27 length=0.032163 units=km normamps=456.0
new line.52883167 phases=3 bus1=80507455007259.1.2.3 bus2=80507465007259.1.2.3 r1=0.236 x1=0.27 length=0.014229 units=km normamps=456.0
new line.52883168 phases=3 bus1=80507465007259.1.2.3 bus2=80507475007259.1.2.3 r1=0.236 x1=0.27 length=0.015806 units=km normamps=456.0
new line.52883169 phases=3 bus1=80507475007259.1.2.3 bus2=80503775007259.1.2.3 r1=0.236 x1=0.27 length=0.018889 units=km normamps=456.0
new line.52883170 phases=3 bus1=80507505007259.1.2.3 bus2=80507435007259.1.2.3 r1=0.236 x1=0.27 length=0.025416 units=km normamps=456.0
new line.52883171 phases=3 bus1=80507495007259.1.2.3 bus2=80507505007259.1.2.3 r1=0.236 x1=0.27 length=0.032438 units=km normamps=456.0
new line.52883172 phases=3 bus1=80507485007259.1.2.3 bus2=80507495007259.1.2.3 r1=0.236 x1=0.27 length=0.031999 units=km normamps=456.0
new line.52883173 phases=3 bus1=80399585007259.1.2.3 bus2=80507485007259.1.2.3 r1=0.236 x1=0.27 length=0.036965 units=km normamps=456.0
new line.52883174 phases=3 bus1=80399595007259.1.2.3 bus2=80399585007259.1.2.3 r1=0.236 x1=0.27 length=0.028826 units=km normamps=456.0
new line.52883175 phases=3 bus1=80399615007259.1.2.3 bus2=93348545007259.1.2.3 r1=0.236 x1=0.27 length=0.011821 units=km normamps=456.0
new line.52883176 phases=3 bus1=80507595007259.1.2.3 bus2=80507605007259.1.2.3 r1=0.975 x1=0.47 length=0.034098 units=km normamps=152.0
new line.52883177 phases=3 bus1=80507605007259.1.2.3 bus2=80507625007259.1.2.3 r1=0.975 x1=0.47 length=0.04034 units=km normamps=152.0
new line.52883178 phases=3 bus1=80507635007259.1.2.3 bus2=80507625007259.1.2.3 r1=1.551 x1=0.49 length=0.025561 units=km normamps=114.0
new line.52883179 phases=3 bus1=80507625007259.1.2.3 bus2=86998225007259.1.2.3 r1=0.975 x1=0.47 length=0.016168 units=km normamps=152.0
new line.52883180 phases=3 bus1=80507645007259.1.2.3 bus2=80507655007259.1.2.3 r1=0.975 x1=0.47 length=0.032499 units=km normamps=152.0
new line.52883181 phases=3 bus1=80507665007259.1.2.3 bus2=80507655007259.1.2.3 r1=1.551 x1=0.49 length=0.038302 units=km normamps=114.0
new line.52883182 phases=3 bus1=80507655007259.1.2.3 bus2=80507375007259.1.2.3 r1=0.975 x1=0.47 length=0.035784 units=km normamps=152.0
new line.52883183 phases=3 bus1=80503785007259.1.2.3 bus2=80503775007259.1.2.3 r1=0.236 x1=0.27 length=0.032545 units=km normamps=456.0
new line.52883184 phases=3 bus1=80507755007259.1.2.3 bus2=80507635007259.1.2.3 r1=1.551 x1=0.49 length=0.030051 units=km normamps=114.0
new line.52883185 phases=3 bus1=80507845007259.1.2.3 bus2=80507665007259.1.2.3 r1=1.551 x1=0.49 length=0.034098 units=km normamps=114.0
new line.52883198 phases=3 bus1=80501635007259.1.2.3 bus2=80506025007259.1.2.3 r1=1.551 x1=0.47 length=0.028795 units=km normamps=125.0
new line.52883199 phases=3 bus1=80506155007259.1.2.3 bus2=80506165007259.1.2.3 r1=1.551 x1=0.47 length=0.029925 units=km normamps=125.0
new line.52883200 phases=3 bus1=80506145007259.1.2.3 bus2=80506155007259.1.2.3 r1=0.975 x1=0.46 length=0.018434 units=km normamps=160.0
new line.52883201 phases=3 bus1=80505855007259.1.2.3 bus2=80506165007259.1.2.3 r1=0.975 x1=0.46 length=0.029662 units=km normamps=160.0
new line.52883202 phases=3 bus1=80505185007259.1.2.3 bus2=80506165007259.1.2.3 r1=1.551 x1=0.47 length=0.018429 units=km normamps=125.0
new line.52883203 phases=3 bus1=80505185007259.1.2.3 bus2=80506175007259.1.2.3 r1=1.551 x1=0.47 length=0.021561 units=km normamps=125.0
new line.52883204 phases=3 bus1=80506175007259.1.2.3 bus2=80506185007259.1.2.3 r1=1.551 x1=0.47 length=0.026763 units=km normamps=125.0
new line.52883205 phases=3 bus1=80506185007259.1.2.3 bus2=80506195007259.1.2.3 r1=1.551 x1=0.47 length=0.039338 units=km normamps=125.0
new line.52883221 phases=3 bus1=80520355007259.1.2.3 bus2=95532805007259.1.2.3 r1=0.236 x1=0.27 length=0.011281 units=km normamps=456.0
new line.52883244 phases=3 bus1=80502145007259.1.2.3 bus2=80505795007259.1.2.3 r1=0.975 x1=0.47 length=0.019327 units=km normamps=152.0
new line.52883245 phases=3 bus1=80513265007259.1.2.3 bus2=80519555007259.1.2.3 r1=0.975 x1=0.47 length=0.008432 units=km normamps=152.0
new line.52883246 phases=3 bus1=80519565007259.1.2.3 bus2=80519555007259.1.2.3 r1=0.975 x1=0.47 length=0.02108 units=km normamps=152.0
new line.52883247 phases=3 bus1=80519575007259.1.2.3 bus2=80519565007259.1.2.3 r1=0.975 x1=0.47 length=0.022865 units=km normamps=152.0
new line.52883248 phases=3 bus1=80519985007259.1.2.3 bus2=80519575007259.1.2.3 r1=0.975 x1=0.47 length=0.009427 units=km normamps=152.0
new line.52883249 phases=3 bus1=80520015007259.1.2.3 bus2=80520005007259.1.2.3 r1=0.975 x1=0.47 length=0.027073 units=km normamps=152.0
new line.52883250 phases=3 bus1=80520005007259.1.2.3 bus2=80519985007259.1.2.3 r1=0.975 x1=0.47 length=0.034892 units=km normamps=152.0
new line.52883251 phases=3 bus1=80520035007259.1.2.3 bus2=80520015007259.1.2.3 r1=0.975 x1=0.47 length=0.024722 units=km normamps=152.0
new line.52883252 phases=3 bus1=80520095007259.1.2.3 bus2=80520035007259.1.2.3 r1=0.975 x1=0.47 length=0.03083 units=km normamps=152.0
new line.52883253 phases=3 bus1=80519605007259.1.2.3 bus2=80520095007259.1.2.3 r1=0.975 x1=0.47 length=0.032109 units=km normamps=152.0
new line.52883254 phases=3 bus1=80519625007259.1.2.3 bus2=80519605007259.1.2.3 r1=0.975 x1=0.47 length=0.036153 units=km normamps=152.0
new line.52883255 phases=3 bus1=80519695007259.1.2.3 bus2=80519625007259.1.2.3 r1=0.975 x1=0.47 length=0.021488 units=km normamps=152.0
new line.52883256 phases=3 bus1=80519705007259.1.2.3 bus2=80519695007259.1.2.3 r1=0.975 x1=0.47 length=0.02065 units=km normamps=152.0
new line.52883266 phases=3 bus1=80506195007259.1.2.3 bus2=80506205007259.1.2.3 r1=1.551 x1=0.47 length=0.039182 units=km normamps=125.0
new line.52883267 phases=3 bus1=80506205007259.1.2.3 bus2=80505125007259.1.2.3 r1=1.551 x1=0.47 length=0.022865 units=km normamps=125.0
new line.52883268 phases=3 bus1=80506025007259.1.2.3 bus2=80506145007259.1.2.3 r1=1.551 x1=0.47 length=0.012482 units=km normamps=125.0
new line.52883269 phases=3 bus1=80506215007259.1.2.3 bus2=80506225007259.1.2.3 r1=0.975 x1=0.46 length=0.036953 units=km normamps=160.0
new line.52883270 phases=3 bus1=80506225007259.1.2.3 bus2=80506305007259.1.2.3 r1=0.975 x1=0.46 length=0.03177 units=km normamps=160.0
new line.52883271 phases=3 bus1=80506305007259.1.2.3 bus2=80506315007259.1.2.3 r1=0.975 x1=0.46 length=0.025477 units=km normamps=160.0
new line.52883272 phases=3 bus1=80506315007259.1.2.3 bus2=80506335007259.1.2.3 r1=0.975 x1=0.46 length=0.037827 units=km normamps=160.0
new line.52883273 phases=3 bus1=80502065007259.1.2.3 bus2=80502075007259.1.2.3 r1=0.236 x1=0.27 length=0.041915 units=km normamps=456.0
new line.52883274 phases=3 bus1=80502135007259.1.2.3 bus2=80502125007259.1.2.3 r1=0.236 x1=0.27 length=0.024418 units=km normamps=456.0
new line.52883275 phases=3 bus1=80502145007259.1.2.3 bus2=80502135007259B.1.2.3 r1=0.975 x1=0.47 length=0.016136 units=km normamps=152.0
new line.52883276 phases=3 bus1=80502255007259.1.2.3 bus2=80502235007259.1.2.3 r1=0.236 x1=0.27 length=0.037712 units=km normamps=456.0
new line.52883277 phases=3 bus1=80502285007259.1.2.3 bus2=80502275007259.1.2.3 r1=0.975 x1=0.46 length=0.041065 units=km normamps=160.0
new line.52883278 phases=3 bus1=80506525007259.1.2.3 bus2=80506535007259.1.2.3 r1=0.613 x1=0.44 length=0.023318 units=km normamps=220.0
new line.52883279 phases=3 bus1=80506535007259.1.2.3 bus2=80506555007259.1.2.3 r1=0.613 x1=0.44 length=0.036268 units=km normamps=220.0
new line.52883280 phases=3 bus1=80506555007259B.1.2.3 bus2=80506565007259.1.2.3 r1=0.975 x1=0.47 length=0.009259 units=km normamps=152.0
new line.52883281 phases=3 bus1=80506555007259.1.2.3 bus2=80506575007259.1.2.3 r1=0.613 x1=0.44 length=0.021725 units=km normamps=220.0
new line.52883282 phases=3 bus1=80506575007259.1.2.3 bus2=80506585007259B.1.2.3 r1=0.613 x1=0.44 length=0.017353 units=km normamps=220.0
new line.52883283 phases=3 bus1=80506585007259.1.2.3 bus2=96163105007259.1.2.3 r1=0.613 x1=0.44 length=0.010437 units=km normamps=220.0
new line.52883284 phases=3 bus1=80502415007259.1.2.3 bus2=80502225007259.1.2.3 r1=1.551 x1=0.47 length=0.049644 units=km normamps=125.0
new line.52883285 phases=3 bus1=80506615007259.1.2.3 bus2=80404775007259.1.2.3 r1=0.975 x1=0.46 length=0.026184 units=km normamps=160.0
new line.52883286 phases=3 bus1=80506615007259.1.2.3 bus2=80506625007259.1.2.3 r1=0.975 x1=0.46 length=0.0454 units=km normamps=160.0
new line.52883287 phases=3 bus1=80506635007259.1.2.3 bus2=80506625007259.1.2.3 r1=0.975 x1=0.46 length=0.037052 units=km normamps=160.0
new line.52883288 phases=3 bus1=80506645007259.1.2.3 bus2=80506635007259.1.2.3 r1=0.975 x1=0.46 length=0.050937 units=km normamps=160.0
new line.52883289 phases=3 bus1=80506645007259.1.2.3 bus2=80506655007259.1.2.3 r1=0.975 x1=0.46 length=0.038651 units=km normamps=160.0
new line.52883290 phases=3 bus1=80506215007259.1.2.3 bus2=80505385007259.1.2.3 r1=0.975 x1=0.46 length=0.043086 units=km normamps=160.0
new line.52883291 phases=3 bus1=80503075007259.1.2.3 bus2=80503095007259.1.2.3 r1=0.975 x1=0.46 length=0.03799 units=km normamps=160.0
new line.52883292 phases=3 bus1=80503105007259.1.2.3 bus2=80503095007259.1.2.3 r1=0.975 x1=0.46 length=0.025805 units=km normamps=160.0
new line.52883293 phases=3 bus1=80503115007259.1.2.3 bus2=80503105007259.1.2.3 r1=0.975 x1=0.46 length=0.039627 units=km normamps=160.0
new line.52883294 phases=3 bus1=80503125007259.1.2.3 bus2=80503115007259.1.2.3 r1=0.975 x1=0.46 length=0.037055 units=km normamps=160.0
new line.52883295 phases=3 bus1=80503135007259.1.2.3 bus2=80503125007259.1.2.3 r1=0.975 x1=0.46 length=0.030124 units=km normamps=160.0
new line.52883326 phases=3 bus1=80502395007259.1.2.3 bus2=80502415007259.1.2.3 r1=1.551 x1=0.47 length=0.029489 units=km normamps=125.0
new line.52883327 phases=3 bus1=80506335007259.1.2.3 bus2=80506345007259.1.2.3 r1=0.975 x1=0.46 length=0.044487 units=km normamps=160.0
new line.52883328 phases=3 bus1=80398615007259.1.2.3 bus2=80398605007259.1.2.3 r1=0.975 x1=0.46 length=0.036014 units=km normamps=160.0
new line.52883329 phases=3 bus1=80404775007259.1.2.3 bus2=80506405007259.1.2.3 r1=0.975 x1=0.46 length=0.025869 units=km normamps=160.0
new line.52883330 phases=3 bus1=80506405007259.1.2.3 bus2=80398615007259.1.2.3 r1=0.975 x1=0.46 length=0.048874 units=km normamps=160.0
new line.52883331 phases=3 bus1=80506415007259.1.2.3 bus2=80398605007259.1.2.3 r1=1.551 x1=0.49 length=0.00736 units=km normamps=114.0
new line.52883332 phases=3 bus1=80398625007259.1.2.3 bus2=80398605007259.1.2.3 r1=0.975 x1=0.46 length=0.032109 units=km normamps=160.0
new line.52883333 phases=3 bus1=80398625007259.1.2.3 bus2=80398635007259.1.2.3 r1=0.975 x1=0.46 length=0.029246 units=km normamps=160.0
new line.52883334 phases=3 bus1=80398635007259.1.2.3 bus2=80398645007259.1.2.3 r1=0.975 x1=0.46 length=0.028282 units=km normamps=160.0
new line.52883335 phases=3 bus1=80506495007259.1.2.3 bus2=80506505007259.1.2.3 r1=0.613 x1=0.44 length=0.030381 units=km normamps=220.0
new line.52883336 phases=3 bus1=80506505007259.1.2.3 bus2=80506515007259.1.2.3 r1=0.613 x1=0.44 length=0.028282 units=km normamps=220.0
new line.52883337 phases=3 bus1=80506515007259.1.2.3 bus2=80506525007259.1.2.3 r1=0.613 x1=0.44 length=0.024577 units=km normamps=220.0
new line.52883338 phases=3 bus1=80506655007259.1.2.3 bus2=97834815007259.1.2.3 r1=0.975 x1=0.46 length=0.007041 units=km normamps=160.0
new line.52883339 phases=3 bus1=80506495007259.1.2.3 bus2=80506665007259.1.2.3 r1=0.613 x1=0.44 length=0.014123 units=km normamps=220.0
new line.52883340 phases=3 bus1=80506675007259.1.2.3 bus2=80398645007259.1.2.3 r1=0.975 x1=0.46 length=0.031649 units=km normamps=160.0
new line.52883341 phases=3 bus1=80506685007259.1.2.3 bus2=80506675007259.1.2.3 r1=0.975 x1=0.46 length=0.036829 units=km normamps=160.0
new line.52883342 phases=3 bus1=80503075007259.1.2.3 bus2=80506685007259.1.2.3 r1=0.975 x1=0.46 length=0.020358 units=km normamps=160.0
new line.52883343 phases=3 bus1=80506785007259.1.2.3 bus2=80506795007259.1.2.3 r1=0.975 x1=0.47 length=0.00868 units=km normamps=152.0
new line.52883344 phases=3 bus1=80506785007259.1.2.3 bus2=80506775007259.1.2.3 r1=0.975 x1=0.47 length=0.002482 units=km normamps=152.0
new line.52883345 phases=3 bus1=80506865007259.1.2.3 bus2=80506785007259.1.2.3 r1=0.975 x1=0.47 length=0.025953 units=km normamps=152.0
new line.52883346 phases=3 bus1=80505395007259.1.2.3 bus2=80506785007259.1.2.3 r1=0.975 x1=0.47 length=0.032725 units=km normamps=152.0
new line.52883347 phases=3 bus1=80505405007259.1.2.3 bus2=80506665007259.1.2.3 r1=0.613 x1=0.44 length=0.048723 units=km normamps=220.0
new line.52883348 phases=3 bus1=80505395007259.1.2.3 bus2=80505405007259.1.2.3 r1=0.975 x1=0.47 length=0.033552 units=km normamps=152.0
new line.52883349 phases=3 bus1=80505385007259.1.2.3 bus2=80506665007259B.1.2.3 r1=0.975 x1=0.46 length=0.030695 units=km normamps=160.0
new line.52883429 phases=3 bus1=80511035007259.1.2.3 bus2=94057765007259.1.2.3 r1=0.236 x1=0.27 length=0.018535 units=km normamps=456.0
new line.52883430 phases=3 bus1=80511045007259.1.2.3 bus2=80511055007259.1.2.3 r1=0.236 x1=0.27 length=0.040122 units=km normamps=456.0
new line.52883431 phases=3 bus1=80511055007259.1.2.3 bus2=92773765007259.1.2.3 r1=0.236 x1=0.27 length=0.04022 units=km normamps=456.0
new line.52883435 phases=3 bus1=80511095007259.1.2.3 bus2=80511105007259.1.2.3 r1=0.613 x1=0.45 length=0.060328 units=km normamps=203.0
new line.52883436 phases=3 bus1=80511105007259.1.2.3 bus2=80511115007259.1.2.3 r1=0.613 x1=0.45 length=0.073074 units=km normamps=203.0
new line.52883437 phases=3 bus1=80511115007259.1.2.3 bus2=80511125007259.1.2.3 r1=0.613 x1=0.45 length=0.086425 units=km normamps=203.0
new line.52883438 phases=3 bus1=80511125007259.1.2.3 bus2=80511135007259.1.2.3 r1=0.613 x1=0.45 length=0.046629 units=km normamps=203.0
new line.52883439 phases=3 bus1=80511135007259.1.2.3 bus2=80512445007259.1.2.3 r1=0.613 x1=0.45 length=0.043479 units=km normamps=203.0
new line.52883440 phases=3 bus1=80512445007259.1.2.3 bus2=80512455007259.1.2.3 r1=0.613 x1=0.45 length=0.072998 units=km normamps=203.0
new line.52883441 phases=3 bus1=80512455007259.1.2.3 bus2=80512465007259.1.2.3 r1=0.613 x1=0.45 length=0.068774 units=km normamps=203.0
new line.52883442 phases=3 bus1=80512465007259.1.2.3 bus2=80512475007259.1.2.3 r1=0.613 x1=0.45 length=0.113528 units=km normamps=203.0
new line.52883444 phases=3 bus1=80512485007259.1.2.3 bus2=80512495007259.1.2.3 r1=0.613 x1=0.45 length=0.073192 units=km normamps=203.0
new line.52883447 phases=3 bus1=80512515007259.1.2.3 bus2=80512525007259.1.2.3 r1=0.613 x1=0.45 length=0.047964 units=km normamps=203.0
new line.52883448 phases=3 bus1=80512535007259.1.2.3 bus2=91413615007259.1.2.3 r1=0.975 x1=0.47 length=0.102021 units=km normamps=152.0
new line.52883449 phases=3 bus1=80512555007259.1.2.3 bus2=80512545007259.1.2.3 r1=0.975 x1=0.47 length=0.064433 units=km normamps=152.0
new line.52883450 phases=3 bus1=80512565007259.1.2.3 bus2=80512555007259.1.2.3 r1=0.975 x1=0.47 length=0.101235 units=km normamps=152.0
new line.52883451 phases=3 bus1=80511145007259.1.2.3 bus2=80512565007259.1.2.3 r1=0.613 x1=0.45 length=0.10804 units=km normamps=203.0
new line.52883452 phases=3 bus1=80511145007259.1.2.3 bus2=80512525007259.1.2.3 r1=0.613 x1=0.45 length=0.050925 units=km normamps=203.0
new line.52883459 phases=3 bus1=80511195007259.1.2.3 bus2=80511205007259.1.2.3 r1=0.236 x1=0.27 length=0.053777 units=km normamps=456.0
new line.52883462 phases=3 bus1=80511225007259.1.2.3 bus2=80511235007259.1.2.3 r1=0.236 x1=0.27 length=0.052081 units=km normamps=456.0
new line.52883464 phases=3 bus1=80511245007259.1.2.3 bus2=80511255007259.1.2.3 r1=0.236 x1=0.27 length=0.039986 units=km normamps=456.0
new line.52883490 phases=3 bus1=80512065007259B.1.2.3 bus2=95927975007259.1.2.3 r1=0.195 x1=0.4 length=0.010114 units=km normamps=419.0
new line.52883491 phases=3 bus1=80512075007259.1.2.3 bus2=80512085007259.1.2.3 r1=0.195 x1=0.4 length=0.042235 units=km normamps=419.0
new line.52883492 phases=3 bus1=80512085007259.1.2.3 bus2=80512095007259.1.2.3 r1=0.195 x1=0.4 length=0.038978 units=km normamps=419.0
new line.52883493 phases=3 bus1=80512095007259.1.2.3 bus2=80512105007259.1.2.3 r1=0.195 x1=0.4 length=0.045028 units=km normamps=419.0
new line.52883494 phases=3 bus1=80512105007259.1.2.3 bus2=80512115007259.1.2.3 r1=0.195 x1=0.4 length=0.039933 units=km normamps=419.0
new line.52883495 phases=3 bus1=80512115007259.1.2.3 bus2=80512125007259.1.2.3 r1=0.195 x1=0.4 length=0.039893 units=km normamps=419.0
new line.52883496 phases=3 bus1=80512125007259.1.2.3 bus2=80512135007259.1.2.3 r1=0.195 x1=0.4 length=0.047027 units=km normamps=419.0
new line.52883497 phases=3 bus1=80512135007259.1.2.3 bus2=80512145007259.1.2.3 r1=0.195 x1=0.4 length=0.040915 units=km normamps=419.0
new line.52883498 phases=3 bus1=80512145007259.1.2.3 bus2=80512155007259.1.2.3 r1=0.195 x1=0.4 length=0.047314 units=km normamps=419.0
new line.52883499 phases=3 bus1=80512155007259.1.2.3 bus2=80512165007259.1.2.3 r1=0.195 x1=0.4 length=0.037028 units=km normamps=419.0
new line.52883500 phases=3 bus1=80512165007259.1.2.3 bus2=80512175007259.1.2.3 r1=0.195 x1=0.4 length=0.040953 units=km normamps=419.0
new line.52883501 phases=3 bus1=80512175007259.1.2.3 bus2=80512575007259.1.2.3 r1=0.195 x1=0.4 length=0.03789 units=km normamps=419.0
new line.52883502 phases=3 bus1=80512585007259.1.2.3 bus2=80512575007259.1.2.3 r1=0.195 x1=0.4 length=0.034772 units=km normamps=419.0
new line.52883503 phases=3 bus1=80512585007259.1.2.3 bus2=80512595007259.1.2.3 r1=0.195 x1=0.4 length=0.040915 units=km normamps=419.0
new line.52883504 phases=3 bus1=80512595007259.1.2.3 bus2=80512605007259.1.2.3 r1=0.195 x1=0.4 length=0.038978 units=km normamps=419.0
new line.52883505 phases=3 bus1=80512605007259.1.2.3 bus2=80512615007259.1.2.3 r1=0.195 x1=0.4 length=0.037838 units=km normamps=419.0
new line.52883506 phases=3 bus1=80512625007259.1.2.3 bus2=80512615007259.1.2.3 r1=0.195 x1=0.4 length=0.042235 units=km normamps=419.0
new line.52883507 phases=3 bus1=80512625007259.1.2.3 bus2=80512635007259.1.2.3 r1=0.195 x1=0.4 length=0.039932 units=km normamps=419.0
new line.52883508 phases=3 bus1=80512645007259.1.2.3 bus2=80512635007259.1.2.3 r1=0.195 x1=0.4 length=0.036012 units=km normamps=419.0
new line.52883509 phases=3 bus1=80512655007259.1.2.3 bus2=80472415007259.1.2.3 r1=0.195 x1=0.4 length=0.060177 units=km normamps=419.0
new line.52883510 phases=3 bus1=80512645007259.1.2.3 bus2=80512655007259.1.2.3 r1=0.195 x1=0.4 length=0.03989 units=km normamps=419.0
new line.52883516 phases=3 bus1=80512735007259.1.2.3 bus2=80512705007259.1.2.3 r1=1.551 x1=0.49 length=0.06237 units=km normamps=114.0
new line.52883517 phases=3 bus1=80512725007259.1.2.3 bus2=80512735007259.1.2.3 r1=1.551 x1=0.49 length=0.063685 units=km normamps=114.0
new line.52883518 phases=3 bus1=80512715007259.1.2.3 bus2=80512725007259.1.2.3 r1=1.551 x1=0.49 length=0.054541 units=km normamps=114.0
new line.52883525 phases=3 bus1=80512805007259.1.2.3 bus2=80512815007259.1.2.3 r1=0.975 x1=0.47 length=0.038968 units=km normamps=152.0
new line.52883526 phases=3 bus1=80512815007259.1.2.3 bus2=80514515007259.1.2.3 r1=0.975 x1=0.47 length=0.022361 units=km normamps=152.0
new line.52883527 phases=3 bus1=80514525007259.1.2.3 bus2=80512715007259.1.2.3 r1=1.551 x1=0.49 length=0.010841 units=km normamps=114.0
new line.52883528 phases=3 bus1=80512805007259.1.2.3 bus2=80514545007259.1.2.3 r1=0.975 x1=0.47 length=0.071432 units=km normamps=152.0
new line.52883529 phases=3 bus1=80514545007259.1.2.3 bus2=80514555007259.1.2.3 r1=0.975 x1=0.47 length=0.052703 units=km normamps=152.0
new line.52883545 phases=1 bus1=80512915007259.2 bus2=80512875007259.2 r1=0.613 x1=0.45 length=0.008857 units=km normamps=203.0
new line.52883702 phases=3 bus1=80516705007259.1.2.3 bus2=80516695007259.1.2.3 r1=1.551 x1=0.49 length=0.035976 units=km normamps=114.0
new line.52883703 phases=3 bus1=80516715007259.1.2.3 bus2=80516705007259.1.2.3 r1=1.551 x1=0.49 length=0.033062 units=km normamps=114.0
new line.52883704 phases=3 bus1=80516695007259.1.2.3 bus2=80516115007259.1.2.3 r1=1.551 x1=0.49 length=0.033802 units=km normamps=114.0
...

! 3. Chaves Seccionadoras MT
new line.SC_5271527 phases=3 bus1=80512065007259.1.2.3 bus2=80512065007259B.1.2.3 switch=y r1=1e-4 x1=1e-4 length=0.001 units=km
new line.SC_5271574 phases=3 bus1=80504505007259.1.2.3 bus2=80504505007259B.1.2.3 switch=y r1=1e-4 x1=1e-4 length=0.001 units=km
new line.SC_5271575 phases=3 bus1=80504765007259.1.2.3 bus2=80504765007259B.1.2.3 switch=y r1=1e-4 x1=1e-4 length=0.001 units=km
new line.SC_5271580 phases=3 bus1=80506585007259.1.2.3 bus2=80506585007259B.1.2.3 switch=y r1=1e-4 x1=1e-4 length=0.001 units=km
new line.SC_5271597 phases=3 bus1=80512545007259.1.2.3 bus2=80512545007259B.1.2.3 switch=y r1=1e-4 x1=1e-4 length=0.001 units=km
new line.SC_5271602 phases=1 bus1=93915505007259.2 bus2=93915505007259B.2 switch=y r1=1e-4 x1=1e-4 length=0.001 units=km
new line.SC_5271608 phases=3 bus1=80519195007259.1.2.3 bus2=80519195007259B.1.2.3 switch=y r1=1e-4 x1=1e-4 length=0.001 units=km
new line.SC_5271609 phases=3 bus1=80502135007259.1.2.3 bus2=80502135007259B.1.2.3 switch=y r1=1e-4 x1=1e-4 length=0.001 units=km
new line.SC_5303097 phases=3 bus1=83293785007259.1.2.3 bus2=83293785007259B.1.2.3 switch=y r1=1e-4 x1=1e-4 length=0.001 units=km
new line.SC_5313034 phases=3 bus1=80518945007259.1.2.3 bus2=80518945007259B.1.2.3 switch=y r1=1e-4 x1=1e-4 length=0.001 units=km
new line.SC_5324497 phases=3 bus1=80519075007259.1.2.3 bus2=80519075007259B.1.2.3 switch=y r1=1e-4 x1=1e-4 length=0.001 units=km
new line.SC_5523497 phases=3 bus1=88596545007259.1.2.3 bus2=88596545007259B.1.2.3 switch=y r1=1e-4 x1=1e-4 length=0.001 units=km
new line.SC_5546210 phases=3 bus1=80520155007259.1.2.3 bus2=80520155007259B.1.2.3 switch=y r1=1e-4 x1=1e-4 length=0.001 units=km
open line.SC_5546210 1
new line.SC_5546213 phases=3 bus1=93386735007259.1.2.3 bus2=93386735007259B.1.2.3 switch=y r1=1e-4 x1=1e-4 length=0.001 units=km
new line.SC_5577755 phases=3 bus1=92371835007259.1.2.3 bus2=92371835007259B.1.2.3 switch=y r1=1e-4 x1=1e-4 length=0.001 units=km
new line.SC_5613782 phases=3 bus1=80519355007259.1.2.3 bus2=80519355007259B.1.2.3 switch=y r1=1e-4 x1=1e-4 length=0.001 units=km
new line.SC_5624472 phases=3 bus1=92371855007259.1.2.3 bus2=92371855007259B.1.2.3 switch=y r1=1e-4 x1=1e-4 length=0.001 units=km
open line.SC_5624472 1
new line.SC_5651588 phases=3 bus1=80506665007259.1.2.3 bus2=80506665007259B.1.2.3 switch=y r1=1e-4 x1=1e-4 length=0.001 units=km
new line.SC_5653682 phases=3 bus1=80520215007259.1.2.3 bus2=80520215007259B.1.2.3 switch=y r1=1e-4 x1=1e-4 length=0.001 units=km
new line.SC_5654469 phases=3 bus1=93369395007259.1.2.3 bus2=93369395007259B.1.2.3 switch=y r1=1e-4 x1=1e-4 length=0.001 units=km
new line.SC_5654478 phases=3 bus1=82366965007259.1.2.3 bus2=82366965007259B.1.2.3 switch=y r1=1e-4 x1=1e-4 length=0.001 units=km
new line.SC_5660014 phases=3 bus1=93499085007259.1.2.3 bus2=93499085007259B.1.2.3 switch=y r1=1e-4 x1=1e-4 length=0.001 units=km
open line.SC_5660014 1
new line.SC_5673855 phases=3 bus1=93915745007259.1.2.3 bus2=93915745007259B.1.2.3 switch=y r1=1e-4 x1=1e-4 length=0.001 units=km
new line.SC_5677490 phases=3 bus1=94057805007259.1.2.3 bus2=94057805007259B.1.2.3 switch=y r1=1e-4 x1=1e-4 length=0.001 units=km
open line.SC_5677490 1
new line.SC_5678636 phases=3 bus1=94079965007259.1.2.3 bus2=94079965007259B.1.2.3 switch=y r1=1e-4 x1=1e-4 length=0.001 units=km
new line.SC_5678637 phases=3 bus1=94079785007259.1.2.3 bus2=94079785007259B.1.2.3 switch=y r1=1e-4 x1=1e-4 length=0.001 units=km
open line.SC_5678637 1
new line.SC_5688725 phases=3 bus1=94329595007259.1.2.3 bus2=94329595007259B.1.2.3 switch=y r1=1e-4 x1=1e-4 length=0.001 units=km
new line.SC_5688871 phases=3 bus1=94333805007259.1.2.3 bus2=94333805007259B.1.2.3 switch=y r1=1e-4 x1=1e-4 length=0.001 units=km
new line.SC_5688872 phases=3 bus1=94333835007259.1.2.3 bus2=94333835007259B.1.2.3 switch=y r1=1e-4 x1=1e-4 length=0.001 units=km
open line.SC_5688872 1
new line.SC_5689224 phases=3 bus1=94329635007259.1.2.3 bus2=94329635007259B.1.2.3 switch=y r1=1e-4 x1=1e-4 length=0.001 units=km
open line.SC_5689224 1
new line.SC_5702373 phases=3 bus1=92773785007259.1.2.3 bus2=92773785007259B.1.2.3 switch=y r1=1e-4 x1=1e-4 length=0.001 units=km
new line.SC_5709367 phases=3 bus1=94730915007259.1.2.3 bus2=94730915007259B.1.2.3 switch=y r1=1e-4 x1=1e-4 length=0.001 units=km
open line.SC_5709367 1
new line.SC_5709375 phases=3 bus1=94730785007259.1.2.3 bus2=94730785007259B.1.2.3 switch=y r1=1e-4 x1=1e-4 length=0.001 units=km
new line.SC_5710819 phases=3 bus1=94789835007259.1.2.3 bus2=94789835007259B.1.2.3 switch=y r1=1e-4 x1=1e-4 length=0.001 units=km
open line.SC_5710819 1
new line.SC_5710844 phases=3 bus1=94789885007259.1.2.3 bus2=94789885007259B.1.2.3 switch=y r1=1e-4 x1=1e-4 length=0.001 units=km
open line.SC_5710844 1
new line.SC_5724411 phases=3 bus1=80507415007259.1.2.3 bus2=80507415007259B.1.2.3 switch=y r1=1e-4 x1=1e-4 length=0.001 units=km
new line.SC_5724847 phases=3 bus1=95408435007259.1.2.3 bus2=95408435007259B.1.2.3 switch=y r1=1e-4 x1=1e-4 length=0.001 units=km
open line.SC_5724847 1
new line.SC_5728217 phases=3 bus1=80501125007259.1.2.3 bus2=80501125007259B.1.2.3 switch=y r1=1e-4 x1=1e-4 length=0.001 units=km
new line.SC_5728916 phases=3 bus1=80511835007259.1.2.3 bus2=80511835007259B.1.2.3 switch=y r1=1e-4 x1=1e-4 length=0.001 units=km
new line.SC_5728917 phases=3 bus1=95532385007259.1.2.3 bus2=95532385007259B.1.2.3 switch=y r1=1e-4 x1=1e-4 length=0.001 units=km
new line.SC_5728951 phases=3 bus1=83294975007259.1.2.3 bus2=83294975007259B.1.2.3 switch=y r1=1e-4 x1=1e-4 length=0.001 units=km
new line.SC_5728952 phases=3 bus1=95532825007259.1.2.3 bus2=95532825007259B.1.2.3 switch=y r1=1e-4 x1=1e-4 length=0.001 units=km
open line.SC_5728952 1
new line.SC_5729354 phases=3 bus1=96981665007259.1.2.3 bus2=96981665007259B.1.2.3 switch=y r1=1e-4 x1=1e-4 length=0.001 units=km
open line.SC_5729354 1
new line.SC_5737798 phases=3 bus1=95928045007259.1.2.3 bus2=95928045007259B.1.2.3 switch=y r1=1e-4 x1=1e-4 length=0.001 units=km
open line.SC_5737798 1
new line.SC_5737799 phases=3 bus1=95927945007259.1.2.3 bus2=95927945007259B.1.2.3 switch=y r1=1e-4 x1=1e-4 length=0.001 units=km
new line.SC_5754713 phases=3 bus1=96805555007259.1.2.3 bus2=96805555007259B.1.2.3 switch=y r1=1e-4 x1=1e-4 length=0.001 units=km
new line.SC_5754714 phases=3 bus1=96804475007259.1.2.3 bus2=96804475007259B.1.2.3 switch=y r1=1e-4 x1=1e-4 length=0.001 units=km
new line.SC_5754728 phases=3 bus1=96848425007259.1.2.3 bus2=96848425007259B.1.2.3 switch=y r1=1e-4 x1=1e-4 length=0.001 units=km
new line.SC_5781646 phases=3 bus1=97834775007259.1.2.3 bus2=97834775007259B.1.2.3 switch=y r1=1e-4 x1=1e-4 length=0.001 units=km
open line.SC_5781646 1
new line.SC_5781651 phases=3 bus1=97834755007259.1.2.3 bus2=97834755007259B.1.2.3 switch=y r1=1e-4 x1=1e-4 length=0.001 units=km
new line.SC_5782976 phases=3 bus1=80506555007259.1.2.3 bus2=80506555007259B.1.2.3 switch=y r1=1e-4 x1=1e-4 length=0.001 units=km
new line.SC_DA0000866 phases=3 bus1=I888888312635007259B.1.2.3 bus2=MT2BB.1.2.3 switch=y r1=1e-4 x1=1e-4 length=0.001 units=km
new line.SC_DA0002850 phases=3 bus1=I888888312635007259B.1.2.3 bus2=MD1013P45S2B.1.2.3 switch=y r1=1e-4 x1=1e-4 length=0.001 units=km
new line.SC_DA0002859 phases=3 bus1=I888888312635007259B.1.2.3 bus2=MD1013P45S1B.1.2.3 switch=y r1=1e-4 x1=1e-4 length=0.001 units=km
new line.SC_DB0000402 phases=3 bus1=I888888312635007259B.1.2.3 bus2=MT3BB.1.2.3 switch=y r1=1e-4 x1=1e-4 length=0.001 units=km
new line.SC_DB0000562 phases=3 bus1=I888888312635007259B.1.2.3 bus2=MOVBB.1.2.3 switch=y r1=1e-4 x1=1e-4 length=0.001 units=km
new line.SC_DB0001109 phases=3 bus1=I888888312635007259B.1.2.3 bus2=MD1034P45TR1B.1.2.3 switch=y r1=1e-4 x1=1e-4 length=0.001 units=km
new line.SC_DB0001758 phases=3 bus1=I888888312635007259B.1.2.3 bus2=DB0001758B.1.2.3 switch=y r1=1e-4 x1=1e-4 length=0.001 units=km
new line.SC_DB0001759 phases=3 bus1=I888888312635007259B.1.2.3 bus2=DB0001759B.1.2.3 switch=y r1=1e-4 x1=1e-4 length=0.001 units=km
new line.SC_SB0001805 phases=3 bus1=I888888312635007259B.1.2.3 bus2=SB0001805B.1.2.3 switch=y r1=1e-4 x1=1e-4 length=0.001 units=km
new line.SC_5818799 phases=3 bus1=99819055007259.1.2.3 bus2=99819055007259B.1.2.3 switch=y r1=1e-4 x1=1e-4 length=0.001 units=km
open line.SC_5818799 1
new line.SC_5813481 phases=3 bus1=99473955007259.1.2.3 bus2=99473955007259B.1.2.3 switch=y r1=1e-4 x1=1e-4 length=0.001 units=km
open line.SC_5813481 1
new line.SC_5815398 phases=3 bus1=99218695007259.1.2.3 bus2=99218695007259B.1.2.3 switch=y r1=1e-4 x1=1e-4 length=0.001 units=km
new line.SC_5815112 phases=3 bus1=99615395007259.1.2.3 bus2=99615395007259B.1.2.3 switch=y r1=1e-4 x1=1e-4 length=0.001 units=km
new line.SC_DB0000545 phases=3 bus1=I888888312645007259.1.2.3 bus2=I888888312645007259B.1.2.3 switch=y r1=1e-4 x1=1e-4 length=0.001 units=km
new line.SC_SA0002851 phases=3 bus1=I888888312635007259.1.2.3 bus2=I888888312635007259B.1.2.3 switch=y r1=1e-4 x1=1e-4 length=0.001 units=km
new line.SC_SA0002852 phases=3 bus1=I888888477415007259.1.2.3 bus2=I888888477415007259B.1.2.3 switch=y r1=1e-4 x1=1e-4 length=0.001 units=km
new line.SC_SA0002853 phases=3 bus1=I888888477405007259.1.2.3 bus2=I888888477405007259B.1.2.3 switch=y r1=1e-4 x1=1e-4 length=0.001 units=km

! 5. Transformadores MT/BT de Distribuicao
new transformer.UNTRMT_5813510 phases=3 windings=2 %r=1.25 xhl=4.32 kva=300.0
~ wdg=1 bus=99465585007259.1.2.3 conn=delta kv=13.8
~ wdg=2 bus=99465585813510.1.2.3.0 conn=wye kv=0.38

new transformer.UNTRMT_5813540 phases=3 windings=2 %r=1.25 xhl=4.32 kva=300.0
~ wdg=1 bus=99468595007259.1.2.3 conn=delta kv=13.8
~ wdg=2 bus=99468595813540.1.2.3.0 conn=wye kv=0.38

new transformer.UNTRMT_5813604 phases=3 windings=2 %r=1.25 xhl=4.32 kva=300.0
~ wdg=1 bus=99468575007259.1.2.3 conn=delta kv=13.8
~ wdg=2 bus=99468575813604.1.2.3.0 conn=wye kv=0.38

new transformer.UNTRMT_5813658 phases=3 windings=2 %r=1.25 xhl=4.32 kva=300.0
~ wdg=1 bus=99468525007259.1.2.3 conn=delta kv=13.8
~ wdg=2 bus=99468525813658.1.2.3.0 conn=wye kv=0.38

new transformer.UNTRMT_5813675 phases=3 windings=2 %r=1.25 xhl=4.32 kva=300.0
~ wdg=1 bus=99468555007259.1.2.3 conn=delta kv=13.8
~ wdg=2 bus=99468555813675.1.2.3.0 conn=wye kv=0.38

new transformer.UNTRMT_5813711 phases=3 windings=2 %r=1.25 xhl=4.32 kva=300.0
~ wdg=1 bus=99468495007259.1.2.3 conn=delta kv=13.8
~ wdg=2 bus=99468495813711.1.2.3.0 conn=wye kv=0.38

new transformer.UNTRMT_5813730 phases=3 windings=2 %r=1.25 xhl=4.32 kva=300.0
~ wdg=1 bus=99468485007259.1.2.3 conn=delta kv=13.8
~ wdg=2 bus=99468485813730.1.2.3.0 conn=wye kv=0.38

new transformer.UNTRMT_5813635 phases=3 windings=2 %r=1.25 xhl=4.32 kva=300.0
~ wdg=1 bus=99468585007259.1.2.3 conn=delta kv=13.8
~ wdg=2 bus=99468585813635.1.2.3.0 conn=wye kv=0.38

new transformer.UNTRMT_5813748 phases=3 windings=2 %r=1.25 xhl=4.32 kva=300.0
~ wdg=1 bus=99466155007259.1.2.3 conn=delta kv=13.8
~ wdg=2 bus=99466155813748.1.2.3.0 conn=wye kv=0.38

new transformer.UNTRMT_5813767 phases=3 windings=2 %r=1.25 xhl=4.32 kva=300.0
~ wdg=1 bus=99466195007259.1.2.3 conn=delta kv=13.8
~ wdg=2 bus=99466195813767.1.2.3.0 conn=wye kv=0.38

new transformer.UNTRMT_5271551 phases=1 windings=3 %r=2.08 xhl=1.39 xht=1.39 xlt=0.97 kva=10.0
~ wdg=1 bus=80512915007259.2 conn=wye kv=7.96 kva=10.0 %r=1.04
~ wdg=2 bus=80512915271551.1.0 conn=wye kv=0.22 kva=10.0 %r=1.04
~ wdg=3 bus=80512915271551.0.2 conn=wye kv=0.22 kva=10.0 %r=1.04

new transformer.UNTRMT_5289736 phases=3 windings=2 %r=1.46 xhl=3.18 kva=112.0
~ wdg=1 bus=82366955007259.1.2.3 conn=delta kv=13.8
~ wdg=2 bus=82366955289736.1.2.3.0 conn=wye kv=0.38

! 6. Linhas de Baixa Tensao (BT)
new line.53119669 phases=3 bus1=82361365289736.1.2.3.0 bus2=82361355289736.1.2.3.0 r1=0.975 x1=0.47 length=0.023563 units=km normamps=152.0
new line.53119678 phases=3 bus1=82361335289736.1.2.3.0 bus2=82361395289736.1.2.3.0 r1=0.975 x1=0.47 length=0.035448 units=km normamps=152.0
new line.53119679 phases=3 bus1=82361395289736.1.2.3.0 bus2=82361405289736.1.2.3.0 r1=0.975 x1=0.47 length=0.037385 units=km normamps=152.0
new line.55167225 phases=3 bus1=94312615289736.1.2.3.0 bus2=80440035289736.1.2.3.0 r1=0.991 x1=0.1 length=0.009094 units=km normamps=100.0
new line.55304432 phases=3 bus1=95408505289736.1.2.3.0 bus2=82366955289736.1.2.3.0 r1=0.613 x1=0.45 length=0.007174 units=km normamps=203.0
new line.55505942 phases=3 bus1=95408415289736.1.2.3.0 bus2=95408505289736.1.2.3.0 r1=0.506 x1=0.1 length=0.01191 units=km normamps=157.0
new line.53119668 phases=3 bus1=82361355289736.1.2.3.0 bus2=82361345289736.1.2.3.0 r1=0.975 x1=0.47 length=0.032483 units=km normamps=152.0
new line.53119673 phases=3 bus1=82366955289736.1.2.3.0 bus2=82366965289736.1.2.3.0 r1=0.613 x1=0.45 length=0.023876 units=km normamps=203.0
new line.55505921 phases=3 bus1=96981655289736.1.2.3.0 bus2=80439965289736.1.2.3.0 r1=0.613 x1=0.45 length=0.013668 units=km normamps=203.0
new line.55505940 phases=3 bus1=96981655289736.1.2.3.0 bus2=82366945289736.1.2.3.0 r1=0.506 x1=0.1 length=0.007575 units=km normamps=157.0
new line.53119667 phases=3 bus1=82361335289736.1.2.3.0 bus2=82361345289736.1.2.3.0 r1=0.975 x1=0.47 length=0.045192 units=km normamps=152.0
new line.53119671 phases=3 bus1=82361375289736.1.2.3.0 bus2=82361385289736.1.2.3.0 r1=0.975 x1=0.47 length=0.030074 units=km normamps=152.0
new line.53119672 phases=3 bus1=82361385289736.1.2.3.0 bus2=80440105289736.1.2.3.0 r1=0.975 x1=0.47 length=0.025172 units=km normamps=152.0
new line.53119674 phases=3 bus1=82366945289736.1.2.3.0 bus2=95408495289736.1.2.3.0 r1=0.613 x1=0.45 length=0.006195 units=km normamps=203.0
new line.55505941 phases=3 bus1=82366945289736.1.2.3.0 bus2=95408415289736.1.2.3.0 r1=0.506 x1=0.1 length=0.010667 units=km normamps=157.0
new line.55838375 phases=3 bus1=9939013.1.2.3 bus2=9939012.1.2.3 r1=0.506 x1=0.11 length=0.027266 units=km normamps=138.0
new line.55838376 phases=3 bus1=9939012.1.2.3 bus2=9939014.1.2.3 r1=0.506 x1=0.11 length=0.037031 units=km normamps=138.0
new line.55838377 phases=3 bus1=9939014.1.2.3 bus2=9939015.1.2.3 r1=0.506 x1=0.11 length=0.031861 units=km normamps=138.0
new line.55838378 phases=3 bus1=9939015.1.2.3 bus2=9939016.1.2.3 r1=0.506 x1=0.11 length=0.029105 units=km normamps=138.0
new line.55838379 phases=3 bus1=9939016.1.2.3 bus2=9939017.1.2.3 r1=0.506 x1=0.11 length=0.031607 units=km normamps=138.0
new line.55838380 phases=3 bus1=9939017.1.2.3 bus2=9939018.1.2.3 r1=0.506 x1=0.11 length=0.027797 units=km normamps=138.0
new line.55838381 phases=3 bus1=9939017.1.2.3 bus2=9939114.1.2.3 r1=0.732 x1=0.11 length=0.026161 units=km normamps=112.0
new line.55838382 phases=3 bus1=9939018.1.2.3 bus2=9939113.1.2.3 r1=0.506 x1=0.11 length=0.037861 units=km normamps=138.0
new line.55838383 phases=3 bus1=9939012.1.2.3 bus2=9939011.1.2.3 r1=0.506 x1=0.11 length=0.033283 units=km normamps=138.0
new line.55838384 phases=3 bus1=9939011.1.2.3 bus2=9939010.1.2.3 r1=0.506 x1=0.11 length=0.038203 units=km normamps=138.0
new line.55838385 phases=3 bus1=9939010.1.2.3 bus2=9939019.1.2.3 r1=0.506 x1=0.11 length=0.028306 units=km normamps=138.0
new line.55838386 phases=3 bus1=9939019.1.2.3 bus2=9939020.1.2.3 r1=0.506 x1=0.11 length=0.035807 units=km normamps=138.0
new line.55838387 phases=3 bus1=9939020.1.2.3 bus2=9939021.1.2.3 r1=0.506 x1=0.11 length=0.027783 units=km normamps=138.0
new line.55838388 phases=3 bus1=9939021.1.2.3 bus2=9939108.1.2.3 r1=0.506 x1=0.11 length=0.020294 units=km normamps=138.0
new line.55838389 phases=3 bus1=9939108.1.2.3 bus2=9939109.1.2.3 r1=0.506 x1=0.11 length=0.02448 units=km normamps=138.0
new line.55838390 phases=3 bus1=9939109.1.2.3 bus2=9939110.1.2.3 r1=0.506 x1=0.11 length=0.028879 units=km normamps=138.0
new line.55840941 phases=3 bus1=9939006.1.2.3 bus2=9939007.1.2.3 r1=0.506 x1=0.11 length=0.02845 units=km normamps=138.0
new line.55840943 phases=3 bus1=9922430.1.2.3 bus2=9939226.1.2.3 r1=0.289 x1=0.1 length=0.010717 units=km normamps=186.0
new line.55840944 phases=3 bus1=9939226.1.2.3 bus2=9939220.1.2.3 r1=0.289 x1=0.1 length=0.014243 units=km normamps=186.0
new line.55840946 phases=3 bus1=9939220.1.2.3 bus2=9939219.1.2.3 r1=0.289 x1=0.1 length=0.033367 units=km normamps=186.0
new line.55840948 phases=3 bus1=9939219.1.2.3 bus2=9939218.1.2.3 r1=0.289 x1=0.1 length=0.039208 units=km normamps=186.0
new line.55840950 phases=3 bus1=9939218.1.2.3 bus2=9939217.1.2.3 r1=0.289 x1=0.1 length=0.025706 units=km normamps=186.0
new line.55840961 phases=3 bus1=9939217.1.2.3 bus2=9939216.1.2.3 r1=0.289 x1=0.1 length=0.019999 units=km normamps=186.0
new line.55840965 phases=3 bus1=9939216.1.2.3 bus2=9939215.1.2.3 r1=0.289 x1=0.1 length=0.03915 units=km normamps=186.0
new line.55840966 phases=3 bus1=9939215.1.2.3 bus2=9939009.1.2.3 r1=0.289 x1=0.1 length=0.04218 units=km normamps=186.0
new line.55840967 phases=3 bus1=9939009.1.2.3 bus2=9939008.1.2.3 r1=0.289 x1=0.1 length=0.04275 units=km normamps=186.0
new line.55840968 phases=3 bus1=9939226.1.2.3 bus2=9939227.1.2.3 r1=0.506 x1=0.11 length=0.01836 units=km normamps=138.0
new line.55840971 phases=3 bus1=9939226.1.2.3 bus2=9939227.1.2.3 r1=0.506 x1=0.11 length=0.01836 units=km normamps=138.0
new line.55840973 phases=3 bus1=9939227.1.2.3 bus2=9939228.1.2.3 r1=0.506 x1=0.11 length=0.034 units=km normamps=138.0
new line.55840974 phases=3 bus1=9939228.1.2.3 bus2=9939229.1.2.3 r1=0.506 x1=0.11 length=0.042605 units=km normamps=138.0
new line.55840975 phases=3 bus1=9939229.1.2.3 bus2=9939230.1.2.3 r1=0.506 x1=0.11 length=0.037749 units=km normamps=138.0
new line.55838351 phases=3 bus1=9922439.1.2.3 bus2=9939013.1.2.3 r1=0.289 x1=0.1 length=0.013292 units=km normamps=186.0
new line.55838353 phases=3 bus1=9922439.1.2.3 bus2=9939013.1.2.3 r1=0.289 x1=0.1 length=0.013292 units=km normamps=186.0
new line.55838374 phases=3 bus1=9939013.1.2.3 bus2=9939012.1.2.3 r1=0.506 x1=0.11 length=0.027266 units=km normamps=138.0
new line.55840900 phases=3 bus1=9922433.1.2.3 bus2=9940484.1.2.3 r1=0.289 x1=0.1 length=0.008506 units=km normamps=186.0
new line.55840918 phases=3 bus1=9922433.1.2.3 bus2=9940484.1.2.3 r1=0.289 x1=0.1 length=0.008506 units=km normamps=186.0
new line.55840919 phases=3 bus1=9922433.1.2.3 bus2=9940484.1.2.3 r1=0.289 x1=0.1 length=0.008506 units=km normamps=186.0
new line.55840920 phases=3 bus1=9940484.1.2.3 bus2=9939001.1.2.3 r1=0.506 x1=0.11 length=0.011438 units=km normamps=138.0
new line.55840922 phases=3 bus1=9940484.1.2.3 bus2=9939001.1.2.3 r1=0.506 x1=0.11 length=0.011438 units=km normamps=138.0
new line.55840925 phases=3 bus1=9940484.1.2.3 bus2=9939001.1.2.3 r1=0.506 x1=0.11 length=0.011438 units=km normamps=138.0
new line.55840926 phases=3 bus1=9939001.1.2.3 bus2=9939002.1.2.3 r1=0.506 x1=0.11 length=0.02721 units=km normamps=138.0
new line.55840927 phases=3 bus1=9939002.1.2.3 bus2=9939022.1.2.3 r1=0.506 x1=0.11 length=0.028337 units=km normamps=138.0
new line.55840929 phases=3 bus1=9939022.1.2.3 bus2=9939107.1.2.3 r1=0.506 x1=0.11 length=0.036355 units=km normamps=138.0
new line.55840930 phases=3 bus1=9939107.1.2.3 bus2=9939111.1.2.3 r1=0.506 x1=0.11 length=0.044758 units=km normamps=138.0
new line.55840931 phases=3 bus1=9939111.1.2.3 bus2=9939112.1.2.3 r1=0.506 x1=0.11 length=0.028101 units=km normamps=138.0
new line.55840932 phases=3 bus1=9939112.1.2.3 bus2=9939115.1.2.3 r1=0.506 x1=0.11 length=0.05598 units=km normamps=138.0
new line.55840933 phases=3 bus1=9939001.1.2.3 bus2=9939003.1.2.3 r1=0.506 x1=0.11 length=0.035452 units=km normamps=138.0
new line.55840934 phases=3 bus1=9939001.1.2.3 bus2=9939003.1.2.3 r1=0.506 x1=0.11 length=0.035452 units=km normamps=138.0
new line.55840935 phases=3 bus1=9939003.1.2.3 bus2=9939005.1.2.3 r1=0.506 x1=0.11 length=0.031831 units=km normamps=138.0
new line.55840936 phases=3 bus1=9939003.1.2.3 bus2=9939004.1.2.3 r1=0.506 x1=0.11 length=0.019506 units=km normamps=138.0
new line.55840937 phases=3 bus1=9939004.1.2.3 bus2=9939203.1.2.3 r1=0.506 x1=0.11 length=0.029202 units=km normamps=138.0
new line.55840938 phases=3 bus1=9939203.1.2.3 bus2=9939207.1.2.3 r1=0.506 x1=0.11 length=0.041378 units=km normamps=138.0
new line.55840939 phases=3 bus1=9939207.1.2.3 bus2=9939211.1.2.3 r1=0.506 x1=0.11 length=0.032138 units=km normamps=138.0
new line.55840940 phases=3 bus1=9939005.1.2.3 bus2=9939006.1.2.3 r1=0.506 x1=0.11 length=0.024113 units=km normamps=138.0
new line.55840989 phases=3 bus1=9939227.1.2.3 bus2=9939231.1.2.3 r1=0.506 x1=0.11 length=0.01692 units=km normamps=138.0
new line.55840993 phases=3 bus1=9939231.1.2.3 bus2=9939232.1.2.3 r1=0.506 x1=0.11 length=0.032551 units=km normamps=138.0
new line.55841044 phases=3 bus1=9939232.1.2.3 bus2=9939235.1.2.3 r1=0.506 x1=0.11 length=0.031943 units=km normamps=138.0
new line.55841046 phases=3 bus1=9939235.1.2.3 bus2=9939233.1.2.3 r1=0.506 x1=0.11 length=0.034963 units=km normamps=138.0
new line.55849164 phases=3 bus1=9946115.1.2.3 bus2=9946148.1.2.3 r1=0.506 x1=0.11 length=0.01775 units=km normamps=138.0
new line.55849152 phases=3 bus1=9921862.1.2.3 bus2=9946157.1.2.3 r1=0.506 x1=0.11 length=0.009798 units=km normamps=138.0
new line.55849153 phases=3 bus1=9921862.1.2.3 bus2=9946157.1.2.3 r1=0.506 x1=0.11 length=0.009798 units=km normamps=138.0
new line.55849154 phases=3 bus1=9946157.1.2.3 bus2=9946158.1.2.3 r1=0.506 x1=0.11 length=0.022743 units=km normamps=138.0
new line.55849155 phases=3 bus1=9946157.1.2.3 bus2=9946158.1.2.3 r1=0.506 x1=0.11 length=0.022743 units=km normamps=138.0
new line.55849156 phases=3 bus1=9946158.1.2.3 bus2=9946153.1.2.3 r1=0.506 x1=0.11 length=0.018268 units=km normamps=138.0
new line.55849157 phases=3 bus1=9946158.1.2.3 bus2=9946153.1.2.3 r1=0.506 x1=0.11 length=0.018268 units=km normamps=138.0
new line.55849158 phases=3 bus1=9946153.1.2.3 bus2=9946156.1.2.3 r1=0.506 x1=0.11 length=0.02905 units=km normamps=138.0
new line.55849159 phases=3 bus1=9946153.1.2.3 bus2=9946152.1.2.3 r1=0.506 x1=0.11 length=0.014629 units=km normamps=138.0
new line.55849160 phases=3 bus1=9946152.1.2.3 bus2=9946150.1.2.3 r1=0.506 x1=0.11 length=0.036408 units=km normamps=138.0
new line.55849161 phases=3 bus1=9946150.1.2.3 bus2=99461105813510.1.2.3 r1=0.506 x1=0.11 length=0.030465 units=km normamps=138.0
new line.55849162 phases=3 bus1=99461105813510.1.2.3 bus2=9946114.1.2.3 r1=0.506 x1=0.11 length=0.013178 units=km normamps=138.0
new line.55849163 phases=3 bus1=99461105813510.1.2.3 bus2=9946115.1.2.3 r1=0.506 x1=0.11 length=0.028896 units=km normamps=138.0
new line.55849165 phases=3 bus1=9946148.1.2.3 bus2=9946149.1.2.3 r1=0.506 x1=0.11 length=0.026912 units=km normamps=138.0
new line.55849166 phases=3 bus1=9946115.1.2.3 bus2=9946116.1.2.3 r1=0.506 x1=0.11 length=0.040132 units=km normamps=138.0
new line.55849167 phases=3 bus1=9946116.1.2.3 bus2=9946145.1.2.3 r1=0.732 x1=0.11 length=0.016217 units=km normamps=112.0
new line.55849168 phases=3 bus1=9946156.1.2.3 bus2=9946159.1.2.3 r1=0.506 x1=0.11 length=0.038664 units=km normamps=138.0
new line.55849169 phases=3 bus1=9946159.1.2.3 bus2=9946161.1.2.3 r1=0.506 x1=0.11 length=0.037674 units=km normamps=138.0
new line.55849170 phases=3 bus1=9946161.1.2.3 bus2=9946162.1.2.3 r1=0.506 x1=0.11 length=0.032992 units=km normamps=138.0
new line.55849171 phases=3 bus1=9946162.1.2.3 bus2=9946165.1.2.3 r1=0.506 x1=0.11 length=0.030835 units=km normamps=138.0
new line.55849172 phases=3 bus1=9946165.1.2.3 bus2=9946167.1.2.3 r1=0.506 x1=0.11 length=0.030695 units=km normamps=138.0
new line.55849173 phases=3 bus1=9946167.1.2.3 bus2=99462155813711.1.2.3 r1=0.506 x1=0.11 length=0.034602 units=km normamps=138.0
new line.55850040 phases=3 bus1=9921851.1.2.3 bus2=9945574.1.2.3 r1=0.506 x1=0.11 length=0.017191 units=km normamps=138.0
new line.55850042 phases=3 bus1=9921851.1.2.3 bus2=9945574.1.2.3 r1=0.289 x1=0.1 length=0.017191 units=km normamps=186.0
new line.55850232 phases=3 bus1=9921839.1.2.3 bus2=9945927.1.2.3 r1=0.506 x1=0.11 length=0.0099 units=km normamps=138.0
new line.55850233 phases=3 bus1=9921839.1.2.3 bus2=9945927.1.2.3 r1=0.506 x1=0.11 length=0.0099 units=km normamps=138.0
new line.55850234 phases=3 bus1=9945927.1.2.3 bus2=9945928.1.2.3 r1=0.506 x1=0.11 length=0.024299 units=km normamps=138.0
new line.55850235 phases=3 bus1=9945927.1.2.3 bus2=9945928.1.2.3 r1=0.506 x1=0.11 length=0.024299 units=km normamps=138.0
new line.55850236 phases=3 bus1=9945928.1.2.3 bus2=9945929.1.2.3 r1=0.506 x1=0.11 length=0.032801 units=km normamps=138.0
new line.55850238 phases=3 bus1=9945928.1.2.3 bus2=9945929.1.2.3 r1=0.506 x1=0.11 length=0.032801 units=km normamps=138.0
new line.55850239 phases=3 bus1=9945929.1.2.3 bus2=9945930.1.2.3 r1=0.506 x1=0.11 length=0.031419 units=km normamps=138.0
new line.55850241 phases=3 bus1=9945929.1.2.3 bus2=9945930.1.2.3 r1=0.506 x1=0.11 length=0.031419 units=km normamps=138.0
new line.55850243 phases=3 bus1=9945930.1.2.3 bus2=9946425.1.2.3 r1=0.506 x1=0.11 length=0.010362 units=km normamps=138.0
new line.55850244 phases=3 bus1=9945930.1.2.3 bus2=9945931.1.2.3 r1=0.506 x1=0.11 length=0.034763 units=km normamps=138.0
new line.55850251 phases=3 bus1=9945574.1.2.3 bus2=9945575.1.2.3 r1=0.506 x1=0.11 length=0.01572 units=km normamps=138.0
new line.55850252 phases=3 bus1=9945931.1.2.3 bus2=9945932.1.2.3 r1=0.506 x1=0.11 length=0.033188 units=km normamps=138.0
new line.55850253 phases=3 bus1=9945574.1.2.3 bus2=9945575.1.2.3 r1=0.289 x1=0.1 length=0.01572 units=km normamps=186.0
new line.55850254 phases=3 bus1=9945932.1.2.3 bus2=9945933.1.2.3 r1=0.506 x1=0.11 length=0.029131 units=km normamps=138.0
new line.55850255 phases=3 bus1=9945575.1.2.3 bus2=9945807.1.2.3 r1=0.506 x1=0.11 length=0.026998 units=km normamps=138.0
new line.55850256 phases=3 bus1=9945807.1.2.3 bus2=9945815.1.2.3 r1=0.506 x1=0.11 length=0.028839 units=km normamps=138.0
new line.55850257 phases=3 bus1=9945933.1.2.3 bus2=9945934.1.2.3 r1=0.506 x1=0.11 length=0.027621 units=km normamps=138.0
new line.55850258 phases=3 bus1=9945575.1.2.3 bus2=9945576.1.2.3 r1=0.289 x1=0.1 length=0.02944 units=km normamps=186.0
new line.55850259 phases=3 bus1=9945576.1.2.3 bus2=9945580.1.2.3 r1=0.289 x1=0.1 length=0.04831 units=km normamps=186.0
new line.55850260 phases=3 bus1=9945580.1.2.3 bus2=9945583.1.2.3 r1=0.289 x1=0.1 length=0.03318 units=km normamps=186.0
new line.55850261 phases=3 bus1=9945815.1.2.3 bus2=9945816.1.2.3 r1=0.506 x1=0.11 length=0.040464 units=km normamps=138.0
new line.55850262 phases=3 bus1=9945816.1.2.3 bus2=9945817.1.2.3 r1=0.506 x1=0.11 length=0.031362 units=km normamps=138.0
new line.55850263 phases=3 bus1=9945817.1.2.3 bus2=9945818.1.2.3 r1=0.506 x1=0.11 length=0.039837 units=km normamps=138.0
new line.55850264 phases=3 bus1=9921877.1.2.3 bus2=9945627.1.2.3 r1=0.506 x1=0.11 length=0.006758 units=km normamps=138.0
new line.55850265 phases=3 bus1=9945818.1.2.3 bus2=99458205813748.1.2.3 r1=0.506 x1=0.11 length=0.037102 units=km normamps=138.0
new line.55850280 phases=3 bus1=9921877.1.2.3 bus2=9945627.1.2.3 r1=0.506 x1=0.11 length=0.006758 units=km normamps=138.0
new line.55850282 phases=3 bus1=9945627.1.2.3 bus2=9945628.1.2.3 r1=0.506 x1=0.11 length=0.015345 units=km normamps=138.0
new line.55850284 phases=3 bus1=9945627.1.2.3 bus2=9945628.1.2.3 r1=0.506 x1=0.11 length=0.015345 units=km normamps=138.0
new line.55850286 phases=3 bus1=9945628.1.2.3 bus2=9945737.1.2.3 r1=0.506 x1=0.11 length=0.047686 units=km normamps=138.0
new line.55850289 phases=3 bus1=9945628.1.2.3 bus2=9945632.1.2.3 r1=0.506 x1=0.11 length=0.014629 units=km normamps=138.0
new line.55850292 phases=3 bus1=9945632.1.2.3 bus2=9945637.1.2.3 r1=0.732 x1=0.11 length=0.012463 units=km normamps=112.0
new line.55850295 phases=3 bus1=9945632.1.2.3 bus2=9945634.1.2.3 r1=0.506 x1=0.11 length=0.022227 units=km normamps=138.0
new line.55850297 phases=3 bus1=9945634.1.2.3 bus2=9945642.1.2.3 r1=0.506 x1=0.11 length=0.02548 units=km normamps=138.0
new line.55850300 phases=3 bus1=9945634.1.2.3 bus2=9945640.1.2.3 r1=0.732 x1=0.11 length=0.012302 units=km normamps=112.0
new line.55850301 phases=3 bus1=9945642.1.2.3 bus2=9945643.1.2.3 r1=0.732 x1=0.11 length=0.012527 units=km normamps=112.0
new line.55850303 phases=3 bus1=9945642.1.2.3 bus2=9945644.1.2.3 r1=0.506 x1=0.11 length=0.031229 units=km normamps=138.0
new line.55850311 phases=3 bus1=9945644.1.2.3 bus2=9945647.1.2.3 r1=0.732 x1=0.11 length=0.01215 units=km normamps=112.0
new line.55850314 phases=3 bus1=9945644.1.2.3 bus2=9945648.1.2.3 r1=0.506 x1=0.11 length=0.032905 units=km normamps=138.0
new line.55850315 phases=3 bus1=9945648.1.2.3 bus2=9945651.1.2.3 r1=0.506 x1=0.11 length=0.009618 units=km normamps=138.0
new line.55850319 phases=3 bus1=9945651.1.2.3 bus2=9945654.1.2.3 r1=0.506 x1=0.11 length=0.035391 units=km normamps=138.0
new line.55850367 phases=3 bus1=9945737.1.2.3 bus2=9945736.1.2.3 r1=0.506 x1=0.11 length=0.021844 units=km normamps=138.0
new line.55850368 phases=3 bus1=9945736.1.2.3 bus2=9945825.1.2.3 r1=0.732 x1=0.11 length=0.014641 units=km normamps=112.0
new line.55850369 phases=3 bus1=9945736.1.2.3 bus2=9945735.1.2.3 r1=0.506 x1=0.11 length=0.025052 units=km normamps=138.0
new line.55850370 phases=3 bus1=9945735.1.2.3 bus2=9945734.1.2.3 r1=0.506 x1=0.11 length=0.029953 units=km normamps=138.0
new line.55850371 phases=3 bus1=9945734.1.2.3 bus2=9945733.1.2.3 r1=0.506 x1=0.11 length=0.031625 units=km normamps=138.0
new line.55850373 phases=3 bus1=9945734.1.2.3 bus2=9945840.1.2.3 r1=0.732 x1=0.11 length=0.013534 units=km normamps=112.0
new line.55850380 phases=3 bus1=9921865.1.2.3 bus2=9946515.1.2.3 r1=0.506 x1=0.11 length=0.011561 units=km normamps=138.0
new line.55850381 phases=3 bus1=9921865.1.2.3 bus2=9946515.1.2.3 r1=0.506 x1=0.11 length=0.011561 units=km normamps=138.0
new line.55850382 phases=3 bus1=9946515.1.2.3 bus2=9946514.1.2.3 r1=0.506 x1=0.11 length=0.027167 units=km normamps=138.0
new line.55850383 phases=3 bus1=9946515.1.2.3 bus2=9946514.1.2.3 r1=0.506 x1=0.11 length=0.027167 units=km normamps=138.0
new line.55850388 phases=3 bus1=9946514.1.2.3 bus2=9946372.1.2.3 r1=0.506 x1=0.11 length=0.013622 units=km normamps=138.0
new line.55850403 phases=3 bus1=9946514.1.2.3 bus2=9946512.1.2.3 r1=0.506 x1=0.11 length=0.031806 units=km normamps=138.0
new line.55850404 phases=3 bus1=9946372.1.2.3 bus2=9946370.1.2.3 r1=0.506 x1=0.11 length=0.027008 units=km normamps=138.0
new line.55850405 phases=3 bus1=9946370.1.2.3 bus2=9946369.1.2.3 r1=0.506 x1=0.11 length=0.027817 units=km normamps=138.0
new line.55850406 phases=3 bus1=9921873.1.2.3 bus2=9945911.1.2.3 r1=0.506 x1=0.11 length=0.008753 units=km normamps=138.0
new line.55850407 phases=3 bus1=9946369.1.2.3 bus2=9946367.1.2.3 r1=0.506 x1=0.11 length=0.027483 units=km normamps=138.0
new line.55850409 phases=3 bus1=9921873.1.2.3 bus2=9945911.1.2.3 r1=0.506 x1=0.11 length=0.008753 units=km normamps=138.0
new line.55850410 phases=3 bus1=9946372.1.2.3 bus2=9946373.1.2.3 r1=0.732 x1=0.11 length=0.013893 units=km normamps=112.0
new line.55850413 phases=3 bus1=9946370.1.2.3 bus2=99464145813675.1.2.3 r1=0.732 x1=0.11 length=0.015177 units=km normamps=112.0
new line.55850414 phases=3 bus1=9946369.1.2.3 bus2=9946370.1.2.3 r1=0.732 x1=0.11 length=0.015674 units=km normamps=112.0
new line.55850415 phases=3 bus1=9921873.1.2.3 bus2=9945911.1.2.3 r1=0.506 x1=0.11 length=0.008753 units=km normamps=138.0
new line.55850417 phases=3 bus1=9946367.1.2.3 bus2=9946369.1.2.3 r1=0.732 x1=0.11 length=0.014416 units=km normamps=112.0
new line.55850421 phases=3 bus1=9945911.1.2.3 bus2=9945912.1.2.3 r1=0.506 x1=0.11 length=0.018362 units=km normamps=138.0
new line.55850423 phases=3 bus1=9945911.1.2.3 bus2=9945912.1.2.3 r1=0.506 x1=0.11 length=0.018362 units=km normamps=138.0
new line.55850427 phases=3 bus1=9946512.1.2.3 bus2=9946510.1.2.3 r1=0.506 x1=0.11 length=0.026336 units=km normamps=138.0
new line.55850428 phases=3 bus1=9945911.1.2.3 bus2=9945912.1.2.3 r1=0.506 x1=0.11 length=0.018362 units=km normamps=138.0
new line.55850431 phases=3 bus1=9946510.1.2.3 bus2=9946509.1.2.3 r1=0.506 x1=0.11 length=0.013309 units=km normamps=138.0
new line.55850432 phases=3 bus1=9946509.1.2.3 bus2=9946475.1.2.3 r1=0.506 x1=0.11 length=0.03918 units=km normamps=138.0
new line.55850433 phases=3 bus1=9946475.1.2.3 bus2=9946207.1.2.3 r1=0.506 x1=0.11 length=0.036999 units=km normamps=138.0
new line.55850434 phases=3 bus1=9945912.1.2.3 bus2=9946371.1.2.3 r1=0.506 x1=0.11 length=0.035694 units=km normamps=138.0
...